*SPEF "IEEE 1481.1999"
*DESIGN "up_counter"
*DATE "20:43:14 Tuesday December 10, 2024"
*VENDOR "unknown"
*PROGRAM "qrouter"
*VERSION "unknown"
*DESIGN_FLOW "qflow"
*DIVIDER /
*DELIMITER :
*BUS_DELIMITER <>
*T_UNIT 1 PS
*C_UNIT 1 FF
*R_UNIT 1 OHM
*L_UNIT 1 HENRY

*NAME_MAP
*1 _10_
*2 INVX4_1
*3 DFFSR_7
*4 DFFSR_5
*5 DFFSR_1
*6 DFFSR_3
*7 DFFSR_2
*8 DFFSR_6
*9 DFFSR_4
*10 DFFSR_8
*11 clk
*12 DFFSR_6
*13 DFFSR_7
*14 DFFSR_8
*15 DFFSR_4
*16 DFFSR_5
*17 DFFSR_1
*18 DFFSR_3
*19 DFFSR_2
*20 _23_
*21 DFFSR_2
*22 XNOR2X1_1
*23 AOI21X1_1
*24 AND2X2_2
*25 BUFX2_2
*26 NAND2X1_2
*27 _25_
*28 DFFSR_4
*29 INVX1_1
*30 NOR2X1_5
*31 NAND3X1_2
*32 NAND3X1_1
*33 BUFX2_4
*34 _22_
*35 DFFSR_1
*36 AND2X2_1
*37 NOR2X1_1
*38 BUFX2_1
*39 NAND2X1_1
*40 _24_
*41 DFFSR_3
*42 AND2X2_2
*43 NAND2X1_2
*44 BUFX2_3
*45 AOI21X1_1
*46 _26_
*47 DFFSR_5
*48 XNOR2X1_2
*49 AOI21X1_2
*50 NAND2X1_3
*51 BUFX2_5
*52 _28_
*53 DFFSR_7
*54 XNOR2X1_3
*55 INVX1_3
*56 BUFX2_7
*57 NAND3X1_3
*58 enable
*59 AND2X2_1
*60 NOR2X1_1
*61 NAND2X1_1
*62 _1_
*63 AND2X2_1
*64 NOR2X1_2
*65 AOI21X1_1
*66 NAND3X1_1
*67 _3_
*68 NAND2X1_1
*69 XNOR2X1_1
*70 NOR2X1_3
*71 NOR3X1_1
*72 _6_
*73 NOR2X1_3
*74 NAND3X1_2
*75 NOR2X1_5
*76 NOR2X1_4
*77 _27_
*78 DFFSR_6
*79 NAND2X1_3
*80 BUFX2_6
*81 AOI21X1_2
*82 _29_
*83 DFFSR_8
*84 INVX1_4
*85 BUFX2_8
*86 OAI21X1_1
*87 _5_
*88 NAND2X1_2
*89 NOR3X1_1
*90 NOR2X1_3
*91 _9_
*92 NOR3X1_1
*93 NOR2X1_6
*94 AOI21X1_2
*95 _12_
*96 NAND3X1_1
*97 NOR2X1_7
*98 XNOR2X1_2
*99 _14_
*100 NAND2X1_3
*101 INVX1_2
*102 NOR2X1_7
*103 _15_
*104 NOR2X1_7
*105 NOR2X1_8
*106 NAND3X1_3
*107 _17_
*108 NAND3X1_2
*109 OAI21X1_1
*110 XNOR2X1_3
*111 _2_
*112 NOR2X1_1
*113 NOR2X1_2
*114 _0_[0]
*115 NOR2X1_2
*116 DFFSR_1
*117 _0_[1]
*118 XNOR2X1_1
*119 DFFSR_2
*120 _4_
*121 AOI21X1_1
*122 NOR2X1_4
*123 _0_[2]
*124 NOR2X1_4
*125 DFFSR_3
*126 _7_
*127 NOR2X1_5
*128 NOR2X1_6
*129 _8_
*130 INVX1_1
*131 NOR3X1_1
*132 _0_[3]
*133 NOR2X1_6
*134 DFFSR_4
*135 _11_
*136 AND2X2_2
*137 NAND3X1_1
*138 _0_[4]
*139 XNOR2X1_2
*140 DFFSR_5
*141 _13_
*142 AOI21X1_2
*143 NOR2X1_8
*144 _0_[5]
*145 NOR2X1_8
*146 DFFSR_6
*147 _16_
*148 INVX1_2
*149 NAND3X1_2
*150 _0_[6]
*151 XNOR2X1_3
*152 DFFSR_7
*153 _18_
*154 INVX1_3
*155 OAI21X1_1
*156 _19_
*157 OAI21X1_1
*158 NAND2X1_4
*159 _20_
*160 INVX1_4
*161 NAND3X1_3
*162 _21_
*163 NAND3X1_3
*164 NAND2X1_4
*165 _0_[7]
*166 NAND2X1_4
*167 DFFSR_8
*168 reset
*169 INVX4_1
*170 out0
*171 BUFX2_1
*172 out1
*173 BUFX2_2
*174 out2
*175 BUFX2_3
*176 out3
*177 BUFX2_4
*178 out4
*179 BUFX2_5
*180 out5
*181 BUFX2_6
*182 out6
*183 BUFX2_7
*184 out7
*185 BUFX2_8

*PORTS
*11 I
*58 I
*168 I
*170 O
*172 O
*174 O
*176 O
*178 O
*180 O
*182 O
*184 O

*D_NET *1 0.0015768
*CONN
*I *2:Y O *D INVX4
*I *3:R I *L 0.0357813
*I *4:R I *L 0.0357813
*I *5:R I *L 0.0357813
*I *6:R I *L 0.0357813
*I *7:R I *L 0.0357813
*I *8:R I *L 0.0357813
*I *9:R I *L 0.0357813
*I *10:R I *L 0.0357813
*CAP
1 1_1 7.8e-05
2 1_2 0.0001836
3 1_3 4.08e-05
4 1_4 0.0002448
5 1_5 2.04e-05
6 1_6 0.0002376
7 1_7 5.376e-05
8 1_8 0.00029784
9 1_9 2.688e-05
10 1_10 0.00018912
11 1_11 0.000204
*RES
1 *2:Y 1_1 0.606667
2 1_1 1_2 2.1
3 1_2 *3:R 0
4 1_1 1_3 0.466667
5 1_3 1_4 2.8
6 1_4 1_5 0.233333
7 1_5 *4:R 0
8 1_5 1_6 3.26667
9 1_6 *5:R 0
10 1_6 1_7 1.49333
11 1_7 *6:R 0
12 1_7 1_8 3.40667
13 1_8 *7:R 0
14 1_3 1_9 0.746667
15 1_9 *8:R 0
16 1_9 1_10 3.92
17 1_10 *9:R 0
18 1_10 1_11 2.33333
19 1_11 *10:R 0
*END
*D_NET *11 0.00176856
*CONN
*P *11 O
*I *12:CLK I *L 0.0134469
*I *13:CLK I *L 0.0134469
*I *14:CLK I *L 0.0134469
*I *15:CLK I *L 0.0134469
*I *16:CLK I *L 0.0134469
*I *17:CLK I *L 0.0134469
*I *18:CLK I *L 0.0134469
*I *19:CLK I *L 0.0134469
*CAP
1 11_1 0.00010752
2 11_2 8.16e-05
3 11_3 2.04e-05
4 11_4 9e-05
5 11_5 8.808e-05
6 11_6 0.00019488
7 11_7 7.464e-05
8 11_8 8.16e-05
9 11_9 0.00031248
10 11_10 2.04e-05
11 11_11 0.00017544
12 11_12 2.04e-05
13 11_13 0.00012768
14 11_14 4.704e-05
15 11_15 0.0003264
*RES
1 *11 11_1 2.98667
2 11_1 11_2 0.933333
3 11_2 11_3 0.233333
4 11_3 *12:CLK 0
5 11_3 11_4 1.16667
6 11_4 11_5 1.44667
7 11_5 *13:CLK 0
8 11_4 11_6 5.41333
9 11_6 11_7 1.07333
10 11_7 *14:CLK 0
11 11_6 11_8 0.933333
12 11_8 *15:CLK 0
13 11_1 11_9 4.01333
14 11_9 11_10 0.233333
15 11_10 *16:CLK 0
16 11_10 11_11 2.00667
17 11_11 11_12 0.233333
18 11_12 *17:CLK 0
19 11_12 11_13 3.54667
20 11_13 11_14 1.30667
21 11_14 *18:CLK 0
22 11_13 11_15 3.73333
23 11_15 *19:CLK 0
*END
*D_NET *20 0.00093288
*CONN
*I *21:Q O *D DFFSR
*I *22:B I *L 0.0524659
*I *23:B I *L 0.0268633
*I *24:A I *L 0.0180033
*I *25:A I *L 0.0134147
*I *26:A I *L 0.0177118
*CAP
1 20_1 8.64e-05
2 20_2 0.00012816
3 20_3 4.08e-05
4 20_4 6.72e-05
5 20_5 2.04e-05
6 20_6 4.08e-05
7 20_7 0.00048144
8 20_8 6.768e-05
*RES
1 *21:Q 20_1 0.56
2 20_1 *22:B 0
3 20_1 20_2 2.89333
4 20_2 20_3 0.466667
5 20_3 *23:B 0
6 20_2 20_4 1.86667
7 20_4 20_5 0.233333
8 20_5 20_6 0.466667
9 20_6 *24:A 0
10 20_5 20_7 5.50667
11 20_7 *25:A 0
12 20_4 20_8 1.21333
13 20_8 *26:A 0
*END
*D_NET *27 0.00135768
*CONN
*I *28:Q O *D DFFSR
*I *29:A I *L 0.0134094
*I *30:A I *L 0.0222369
*I *31:A I *L 0.0222511
*I *32:A I *L 0.0222511
*I *33:A I *L 0.0134147
*CAP
1 27_1 0.0003528
2 27_2 0.0002004
3 27_3 0.0001224
4 27_4 9.48e-05
5 27_5 2.04e-05
6 27_6 0.0002244
7 27_7 0.000282
8 27_8 6.048e-05
*RES
1 *28:Q 27_1 2.89333
2 27_1 *29:A 0
3 27_1 27_2 2.00667
4 27_2 27_3 1.4
5 27_3 *30:A 0
6 27_2 27_4 1.63333
7 27_4 27_5 0.233333
8 27_5 *31:A 0
9 27_5 27_6 2.56667
10 27_6 27_7 2.94
11 27_7 *32:A 0
12 27_6 27_8 1.68
13 27_8 *33:A 0
*END
*D_NET *34 0.00040728
*CONN
*I *35:Q O *D DFFSR
*I *36:B I *L 0.0177358
*I *37:B I *L 0.0227534
*I *38:A I *L 0.0134147
*I *39:B I *L 0.0180112
*CAP
1 34_1 0.0001632
2 34_2 2.04e-05
3 34_3 2.688e-05
4 34_4 0
5 34_5 6.72e-05
6 34_6 0.0001296
*RES
1 *35:Q 34_1 1.86667
2 34_1 34_2 0.233333
3 34_2 *36:B 0
4 34_2 34_3 0.746667
5 34_3 34_4 0
6 34_4 *37:B 0
7 34_3 34_5 1.86667
8 34_5 *38:A 0
9 34_5 34_6 0.84
10 34_6 *39:B 0
*END
*D_NET *40 0.000576
*CONN
*I *41:Q O *D DFFSR
*I *42:B I *L 0.0177358
*I *43:B I *L 0.0180112
*I *44:A I *L 0.0134147
*I *45:C I *L 0.02277
*CAP
1 40_1 0.00025104
2 40_2 7.392e-05
3 40_3 6.12e-05
4 40_4 2.016e-05
5 40_5 8.16e-05
6 40_6 8.808e-05
7 40_7 0
*RES
1 *41:Q 40_1 3.64
2 40_1 40_2 2.05333
3 40_2 40_3 0.7
4 40_3 *42:B 0
5 40_2 40_4 0.56
6 40_4 40_5 0.933333
7 40_5 *43:B 0
8 40_4 40_6 1.44667
9 40_6 *44:A 0
10 40_1 40_7 0
11 40_7 *45:C 0
*END
*D_NET *46 0.00044496
*CONN
*I *47:Q O *D DFFSR
*I *48:B I *L 0.0524659
*I *49:B I *L 0.0268633
*I *50:A I *L 0.0177118
*I *51:A I *L 0.0134147
*CAP
1 46_1 0.0001728
2 46_2 6.72e-05
3 46_3 0
4 46_4 5.376e-05
5 46_5 0
6 46_6 0.0001512
*RES
1 *47:Q 46_1 1.12
2 46_1 *48:B 0
3 46_1 46_2 1.86667
4 46_2 46_3 0
5 46_3 *49:B 0
6 46_2 46_4 1.49333
7 46_4 46_5 0
8 46_5 *50:A 0
9 46_4 46_6 4.2
10 46_6 *51:A 0
*END
*D_NET *52 0.00082248
*CONN
*I *53:Q O *D DFFSR
*I *54:B I *L 0.0524659
*I *55:A I *L 0.0134094
*I *56:A I *L 0.0134147
*I *57:A I *L 0.0222511
*CAP
1 52_1 0.0001728
2 52_2 0.000276
3 52_3 2.688e-05
4 52_4 0
5 52_5 0.0001632
6 52_6 0.0001836
*RES
1 *53:Q 52_1 1.12
2 52_1 *54:B 0
3 52_1 52_2 7
4 52_2 52_3 0.746667
5 52_3 52_4 0
6 52_4 *55:A 0
7 52_4 52_5 1.86667
8 52_5 *56:A 0
9 52_2 52_6 2.1
10 52_6 *57:A 0
*END
*D_NET *58 0.0002928
*CONN
*P *58 O
*I *59:A I *L 0.0180033
*I *60:A I *L 0.0222369
*I *61:A I *L 0.0177118
*CAP
1 58_1 2.016e-05
2 58_2 4.92e-05
3 58_3 4.704e-05
4 58_4 8.16e-05
5 58_5 9.48e-05
*RES
1 *58 58_1 0.56
2 58_1 58_2 0.7
3 58_2 *59:A 0
4 58_1 58_3 1.30667
5 58_3 58_4 0.933333
6 58_4 *60:A 0
7 58_3 58_5 1.63333
8 58_5 *61:A 0
*END
*D_NET *62 0.00053952
*CONN
*I *63:Y O *D AND2X2
*I *64:B I *L 0.0227534
*I *65:A I *L 0.0265613
*I *66:B I *L 0.022204
*CAP
1 62_1 8.784e-05
2 62_2 4.08e-05
3 62_3 0.00030912
4 62_4 4.08e-05
5 62_5 6.096e-05
*RES
1 *63:Y 62_1 1.77333
2 62_1 62_2 0.466667
3 62_2 *64:B 0
4 62_1 62_3 8.58667
5 62_3 62_4 0.466667
6 62_4 *65:A 0
7 62_3 62_5 1.02667
8 62_5 *66:B 0
*END
*D_NET *67 0.00071688
*CONN
*I *68:Y O *D NAND2X1
*I *69:A I *L 0.0435905
*I *70:A I *L 0.0222369
*I *71:B I *L 0.0311174
*CAP
1 67_1 0.00028272
2 67_2 2.04e-05
3 67_3 0.00033264
4 67_4 4.08e-05
5 67_5 4.032e-05
*RES
1 *68:Y 67_1 7.18667
2 67_1 67_2 0.233333
3 67_2 *69:A 0
4 67_2 67_3 4.57333
5 67_3 67_4 0.466667
6 67_4 *70:A 0
7 67_3 67_5 1.12
8 67_5 *71:B 0
*END
*D_NET *72 0.0003732
*CONN
*I *73:Y O *D NOR2X1
*I *74:C I *L 0.0226301
*I *75:B I *L 0.0227534
*I *76:A I *L 0.0222369
*CAP
1 72_1 2.04e-05
2 72_2 0.0001632
3 72_3 4.08e-05
4 72_4 7.44e-05
5 72_5 7.44e-05
*RES
1 *73:Y 72_1 0.233333
2 72_1 72_2 1.86667
3 72_2 72_3 0.466667
4 72_3 *74:C 0
5 72_2 72_4 1.4
6 72_4 *75:B 0
7 72_1 72_5 1.4
8 72_5 *76:A 0
*END
*D_NET *77 0.0006732
*CONN
*I *78:Q O *D DFFSR
*I *79:B I *L 0.0180112
*I *80:A I *L 0.0134147
*I *81:C I *L 0.02277
*CAP
1 77_1 0.00032376
2 77_2 5.376e-05
3 77_3 0
4 77_4 0.00020568
5 77_5 9e-05
*RES
1 *78:Q 77_1 4.15333
2 77_1 77_2 1.49333
3 77_2 77_3 0
4 77_3 *79:B 0
5 77_2 77_4 4.71333
6 77_4 *80:A 0
7 77_1 77_5 1.16667
8 77_5 *81:C 0
*END
*D_NET *82 0.00053904
*CONN
*I *83:Q O *D DFFSR
*I *84:A I *L 0.0134094
*I *85:A I *L 0.0134147
*I *86:C I *L 0.0180101
*CAP
1 82_1 0.00024048
2 82_2 0
3 82_3 3.36e-05
4 82_4 6.12e-05
5 82_5 0.00020376
*RES
1 *83:Q 82_1 3.45333
2 82_1 82_2 0
3 82_2 *84:A 0
4 82_1 82_3 0.933333
5 82_3 82_4 0.7
6 82_4 *85:A 0
7 82_3 82_5 2.66
8 82_5 *86:C 0
*END
*D_NET *87 0.00036792
*CONN
*I *88:Y O *D NAND2X1
*I *89:C I *L 0.0317844
*I *90:B I *L 0.0227534
*CAP
1 87_1 0.00022392
2 87_2 0.000144
*RES
1 *88:Y 87_1 3.22
2 87_1 *89:C 0
3 87_1 87_2 0.933333
4 87_2 *90:B 0
*END
*D_NET *91 0.000372
*CONN
*I *92:Y O *D NOR3X1
*I *93:A I *L 0.0222369
*I *94:A I *L 0.0265613
*CAP
1 91_1 0.00019584
2 91_2 4.08e-05
3 91_3 0.00013536
*RES
1 *92:Y 91_1 4.10667
2 91_1 91_2 0.466667
3 91_2 *93:A 0
4 91_1 91_3 2.42667
5 91_3 *94:A 0
*END
*D_NET *95 0.00048408
*CONN
*I *96:Y O *D NAND3X1
*I *97:B I *L 0.0227534
*I *98:A I *L 0.0435905
*CAP
1 95_1 0.00040296
2 95_2 0
3 95_3 8.112e-05
*RES
1 *96:Y 95_1 6.66
2 95_1 95_2 0
3 95_2 *97:B 0
4 95_1 95_3 1.58667
5 95_3 *98:A 0
*END
*D_NET *99 9.792e-05
*CONN
*I *100:Y O *D NAND2X1
*I *101:A I *L 0.0134094
*I *102:A I *L 0.0222369
*CAP
1 99_1 4.032e-05
2 99_2 5.76e-05
*RES
1 *100:Y 99_1 1.12
2 99_1 *101:A 0
3 99_1 99_2 0.373333
4 99_2 *102:A 0
*END
*D_NET *103 0.00054168
*CONN
*I *104:Y O *D NOR2X1
*I *105:A I *L 0.0222369
*I *106:C I *L 0.0226301
*CAP
1 103_1 4.08e-05
2 103_2 0.00025104
3 103_3 0.00024984
*RES
1 *104:Y 103_1 0.466667
2 103_1 103_2 3.64
3 103_2 *105:A 0
4 103_1 103_3 5.27333
5 103_3 *106:C 0
*END
*D_NET *107 0.0008844
*CONN
*I *108:Y O *D NAND3X1
*I *109:B I *L 0.0270702
*I *110:A I *L 0.0435905
*CAP
1 107_1 0.0001428
2 107_2 0.0003492
3 107_3 0.0003924
*RES
1 *108:Y 107_1 1.63333
2 107_1 107_2 4.80667
3 107_2 *109:B 0
4 107_1 107_3 7.23333
5 107_3 *110:A 0
*END
*D_NET *111 0.0001584
*CONN
*I *112:Y O *D NOR2X1
*I *113:A I *L 0.0222369
*CAP
1 111_1 0.0001584
*RES
1 *112:Y 111_1 1.02667
2 111_1 *113:A 0
*END
*D_NET *114 0.0002376
*CONN
*I *115:Y O *D NOR2X1
*I *116:D I *L 0.0135592
*CAP
1 114_1 0.0002376
*RES
1 *115:Y 114_1 3.26667
2 114_1 *116:D 0
*END
*D_NET *117 0.00025008
*CONN
*I *118:Y O *D XNOR2X1
*I *119:D I *L 0.0135592
*CAP
1 117_1 0.00025008
*RES
1 *118:Y 117_1 3.82667
2 117_1 *119:D 0
*END
*D_NET *120 0.00024096
*CONN
*I *121:Y O *D AOI21X1
*I *122:B I *L 0.0227534
*CAP
1 120_1 0.00024096
*RES
1 *121:Y 120_1 2.8
2 120_1 *122:B 0
*END
*D_NET *123 0.00026688
*CONN
*I *124:Y O *D NOR2X1
*I *125:D I *L 0.0135592
*CAP
1 123_1 0.00026688
*RES
1 *124:Y 123_1 3.73333
2 123_1 *125:D 0
*END
*D_NET *126 0.00021168
*CONN
*I *127:Y O *D NOR2X1
*I *128:B I *L 0.0227534
*CAP
1 126_1 0.00021168
*RES
1 *127:Y 126_1 2.14667
2 126_1 *128:B 0
*END
*D_NET *129 0.0003144
*CONN
*I *130:Y O *D INVX1
*I *131:A I *L 0.0310602
*CAP
1 129_1 0.0003144
*RES
1 *130:Y 129_1 2.73333
2 129_1 *131:A 0
*END
*D_NET *132 0.0002376
*CONN
*I *133:Y O *D NOR2X1
*I *134:D I *L 0.0135592
*CAP
1 132_1 0.0002376
*RES
1 *133:Y 132_1 3.26667
2 132_1 *134:D 0
*END
*D_NET *135 2.016e-05
*CONN
*I *136:Y O *D AND2X2
*I *137:C I *L 0.0226301
*CAP
1 135_1 2.016e-05
*RES
1 *136:Y 135_1 0.56
2 135_1 *137:C 0
*END
*D_NET *138 0.00033648
*CONN
*I *139:Y O *D XNOR2X1
*I *140:D I *L 0.0135592
*CAP
1 138_1 0.00033648
*RES
1 *139:Y 138_1 4.38667
2 138_1 *140:D 0
*END
*D_NET *141 0.0001968
*CONN
*I *142:Y O *D AOI21X1
*I *143:B I *L 0.0227534
*CAP
1 141_1 0.0001968
*RES
1 *142:Y 141_1 2.8
2 141_1 *143:B 0
*END
*D_NET *144 0.00026688
*CONN
*I *145:Y O *D NOR2X1
*I *146:D I *L 0.0135592
*CAP
1 144_1 0.00026688
*RES
1 *145:Y 144_1 3.73333
2 144_1 *146:D 0
*END
*D_NET *147 0.00026592
*CONN
*I *148:Y O *D INVX1
*I *149:B I *L 0.022204
*CAP
1 147_1 0.00026592
*RES
1 *148:Y 147_1 2.98667
2 147_1 *149:B 0
*END
*D_NET *150 0.00033648
*CONN
*I *151:Y O *D XNOR2X1
*I *152:D I *L 0.0135592
*CAP
1 150_1 0.00033648
*RES
1 *151:Y 150_1 4.38667
2 150_1 *152:D 0
*END
*D_NET *153 5.76e-05
*CONN
*I *154:Y O *D INVX1
*I *155:A I *L 0.0265312
*CAP
1 153_1 5.76e-05
*RES
1 *154:Y 153_1 0.373333
2 153_1 *155:A 0
*END
*D_NET *156 4.032e-05
*CONN
*I *157:Y O *D OAI21X1
*I *158:A I *L 0.0177118
*CAP
1 156_1 4.032e-05
*RES
1 *157:Y 156_1 1.12
2 156_1 *158:A 0
*END
*D_NET *159 2.016e-05
*CONN
*I *160:Y O *D INVX1
*I *161:B I *L 0.022204
*CAP
1 159_1 2.016e-05
*RES
1 *160:Y 159_1 0.56
2 159_1 *161:B 0
*END
*D_NET *162 0.00018336
*CONN
*I *163:Y O *D NAND3X1
*I *164:B I *L 0.0180112
*CAP
1 162_1 0.00018336
*RES
1 *163:Y 162_1 2.42667
2 162_1 *164:B 0
*END
*D_NET *165 0.000192
*CONN
*I *166:Y O *D NAND2X1
*I *167:D I *L 0.0135592
*CAP
1 165_1 0.000192
*RES
1 *166:Y 165_1 4.10667
2 165_1 *167:D 0
*END
*D_NET *168 2.016e-05
*CONN
*P *168 O
*I *169:A I *L 0.0548793
*CAP
1 168_1 2.016e-05
*RES
1 *168 168_1 0.56
2 168_1 *169:A 0
*END
*D_NET *170 0.00047136
*CONN
*I *171:Y O *D BUFX2
*P *170 I
*CAP
1 170_1 0.00047136
*RES
1 *171:Y 170_1 10.64
2 170_1 *170 0
*END
*D_NET *172 0.00050088
*CONN
*I *173:Y O *D BUFX2
*P *172 I
*CAP
1 172_1 0.00050088
*RES
1 *173:Y 172_1 5.74
2 172_1 *172 0
*END
*D_NET *174 6.096e-05
*CONN
*I *175:Y O *D BUFX2
*P *174 I
*CAP
1 174_1 6.096e-05
*RES
1 *175:Y 174_1 1.02667
2 174_1 *174 0
*END
*D_NET *176 0.00014736
*CONN
*I *177:Y O *D BUFX2
*P *176 I
*CAP
1 176_1 0.00014736
*RES
1 *177:Y 176_1 1.58667
2 176_1 *176 0
*END
*D_NET *178 6.048e-05
*CONN
*I *179:Y O *D BUFX2
*P *178 I
*CAP
1 178_1 6.048e-05
*RES
1 *179:Y 178_1 1.68
2 178_1 *178 0
*END
*D_NET *180 0.00012144
*CONN
*I *181:Y O *D BUFX2
*P *180 I
*CAP
1 180_1 0.00012144
*RES
1 *181:Y 180_1 2.70667
2 180_1 *180 0
*END
*D_NET *182 4.704e-05
*CONN
*I *183:Y O *D BUFX2
*P *182 I
*CAP
1 182_1 4.704e-05
*RES
1 *183:Y 182_1 1.30667
2 182_1 *182 0
*END
*D_NET *184 0.00011856
*CONN
*I *185:Y O *D BUFX2
*P *184 I
*CAP
1 184_1 0.00011856
*RES
1 *185:Y 184_1 1.4
2 184_1 *184 0
*END
